pcf
* control data
             restart          estimation
      4050        14         1         0         3         0
         2         2              single               point         1         0         0          noobsreref
   1.000000E+01  -3.000000E+00   3.000000E-01   3.000000E-02        10       999          lamforgive        noderforgive
   1.000000E+01   1.000000E+01   1.000000E-03         0         0
   1.000000E-01         1   1.100000E+00               noaui          nosenreuse        noboundscale
        10   5.000000E-03         4         4   5.000000E-03         4   0.000000E+00         1  -1.000000E+00
         1         1         1         0             jcosave          verboserec          jcosaveitn          reisaveitn          parsaveitn        noparsaverun
* singular value decomposition
         1
       104    5.000000E-07
0
* parameter groups
pargp                   relative              1.0000000000E-02       0.0  switch                2.0000000000E+00       parabolic             1.0000000000E-05      5.0000000000E-01       smaller
* parameter data
wel_21                 fixed                  factor                1.0000000000E+00      1.1000000000E-10      1.1000000000E+10       pargp                 1.0000000000E+00      0.0000000000E+00      1          
wel_35                 fixed                  factor                1.0000000000E+00      1.1000000000E-10      1.1000000000E+10       pargp                 1.0000000000E+00      0.0000000000E+00      1          
wel_05                 fixed                  factor                1.0000000000E+00      1.1000000000E-10      1.1000000000E+10       pargp                 1.0000000000E+00      0.0000000000E+00      1          
wel_36                 fixed                  factor                1.0000000000E+00      1.1000000000E-10      1.1000000000E+10       pargp                 1.0000000000E+00      0.0000000000E+00      1          
wel_28                 fixed                  factor                1.0000000000E+00      1.1000000000E-10      1.1000000000E+10       pargp                 1.0000000000E+00      0.0000000000E+00      1          
wel_47                 fixed                  factor                1.0000000000E+00      1.1000000000E-10      1.1000000000E+10       pargp                 1.0000000000E+00      0.0000000000E+00      1          
wel_11                 fixed                  factor                1.0000000000E+00      1.1000000000E-10      1.1000000000E+10       pargp                 1.0000000000E+00      0.0000000000E+00      1          
wel_20                 fixed                  factor                1.0000000000E+00      1.1000000000E-10      1.1000000000E+10       pargp                 1.0000000000E+00      0.0000000000E+00      1          
wel_31                 fixed                  factor                1.0000000000E+00      1.1000000000E-10      1.1000000000E+10       pargp                 1.0000000000E+00      0.0000000000E+00      1          
wel_46                 fixed                  factor                1.0000000000E+00      1.1000000000E-10      1.1000000000E+10       pargp                 1.0000000000E+00      0.0000000000E+00      1          
wel_02                 fixed                  factor                1.0000000000E+00      1.1000000000E-10      1.1000000000E+10       pargp                 1.0000000000E+00      0.0000000000E+00      1          
wel_09                 fixed                  factor                1.0000000000E+00      1.1000000000E-10      1.1000000000E+10       pargp                 1.0000000000E+00      0.0000000000E+00      1          
wel_18                 fixed                  factor                1.0000000000E+00      1.1000000000E-10      1.1000000000E+10       pargp                 1.0000000000E+00      0.0000000000E+00      1          
wel_42                 fixed                  factor                1.0000000000E+00      1.1000000000E-10      1.1000000000E+10       pargp                 1.0000000000E+00      0.0000000000E+00      1          
wel_44                 fixed                  factor                1.0000000000E+00      1.1000000000E-10      1.1000000000E+10       pargp                 1.0000000000E+00      0.0000000000E+00      1          
wel_15                 fixed                  factor                1.0000000000E+00      1.1000000000E-10      1.1000000000E+10       pargp                 1.0000000000E+00      0.0000000000E+00      1          
wel_19                 fixed                  factor                1.0000000000E+00      1.1000000000E-10      1.1000000000E+10       pargp                 1.0000000000E+00      0.0000000000E+00      1          
wel_38                 fixed                  factor                1.0000000000E+00      1.1000000000E-10      1.1000000000E+10       pargp                 1.0000000000E+00      0.0000000000E+00      1          
wel_10                 fixed                  factor                1.0000000000E+00      1.1000000000E-10      1.1000000000E+10       pargp                 1.0000000000E+00      0.0000000000E+00      1          
wel_49                 fixed                  factor                1.0000000000E+00      1.1000000000E-10      1.1000000000E+10       pargp                 1.0000000000E+00      0.0000000000E+00      1          
wel_14                 fixed                  factor                1.0000000000E+00      1.1000000000E-10      1.1000000000E+10       pargp                 1.0000000000E+00      0.0000000000E+00      1          
wel_27                 fixed                  factor                1.0000000000E+00      1.1000000000E-10      1.1000000000E+10       pargp                 1.0000000000E+00      0.0000000000E+00      1          
wel_13                 fixed                  factor                1.0000000000E+00      1.1000000000E-10      1.1000000000E+10       pargp                 1.0000000000E+00      0.0000000000E+00      1          
wel_32                 fixed                  factor                1.0000000000E+00      1.1000000000E-10      1.1000000000E+10       pargp                 1.0000000000E+00      0.0000000000E+00      1          
wel_43                 fixed                  factor                1.0000000000E+00      1.1000000000E-10      1.1000000000E+10       pargp                 1.0000000000E+00      0.0000000000E+00      1          
wel_37                 fixed                  factor                1.0000000000E+00      1.1000000000E-10      1.1000000000E+10       pargp                 1.0000000000E+00      0.0000000000E+00      1          
wel_01                 fixed                  factor                1.0000000000E+00      1.1000000000E-10      1.1000000000E+10       pargp                 1.0000000000E+00      0.0000000000E+00      1          
wel_34                 fixed                  factor                1.0000000000E+00      1.1000000000E-10      1.1000000000E+10       pargp                 1.0000000000E+00      0.0000000000E+00      1          
wel_00                 fixed                  factor                1.0000000000E+00      1.1000000000E-10      1.1000000000E+10       pargp                 1.0000000000E+00      0.0000000000E+00      1          
wel_33                 fixed                  factor                1.0000000000E+00      1.1000000000E-10      1.1000000000E+10       pargp                 1.0000000000E+00      0.0000000000E+00      1          
wel_41                 fixed                  factor                1.0000000000E+00      1.1000000000E-10      1.1000000000E+10       pargp                 1.0000000000E+00      0.0000000000E+00      1          
wel_45                 fixed                  factor                1.0000000000E+00      1.1000000000E-10      1.1000000000E+10       pargp                 1.0000000000E+00      0.0000000000E+00      1          
wel_48                 fixed                  factor                1.0000000000E+00      1.1000000000E-10      1.1000000000E+10       pargp                 1.0000000000E+00      0.0000000000E+00      1          
wel_04                 fixed                  factor                1.0000000000E+00      1.1000000000E-10      1.1000000000E+10       pargp                 1.0000000000E+00      0.0000000000E+00      1          
wel_25                 fixed                  factor                1.0000000000E+00      1.1000000000E-10      1.1000000000E+10       pargp                 1.0000000000E+00      0.0000000000E+00      1          
wel_17                 fixed                  factor                1.0000000000E+00      1.1000000000E-10      1.1000000000E+10       pargp                 1.0000000000E+00      0.0000000000E+00      1          
wel_30                 fixed                  factor                1.0000000000E+00      1.1000000000E-10      1.1000000000E+10       pargp                 1.0000000000E+00      0.0000000000E+00      1          
wel_24                 fixed                  factor                1.0000000000E+00      1.1000000000E-10      1.1000000000E+10       pargp                 1.0000000000E+00      0.0000000000E+00      1          
wel_23                 fixed                  factor                1.0000000000E+00      1.1000000000E-10      1.1000000000E+10       pargp                 1.0000000000E+00      0.0000000000E+00      1          
wel_03                 fixed                  factor                1.0000000000E+00      1.1000000000E-10      1.1000000000E+10       pargp                 1.0000000000E+00      0.0000000000E+00      1          
wel_12                 fixed                  factor                1.0000000000E+00      1.1000000000E-10      1.1000000000E+10       pargp                 1.0000000000E+00      0.0000000000E+00      1          
wel_29                 fixed                  factor                1.0000000000E+00      1.1000000000E-10      1.1000000000E+10       pargp                 1.0000000000E+00      0.0000000000E+00      1          
wel_16                 fixed                  factor                1.0000000000E+00      1.1000000000E-10      1.1000000000E+10       pargp                 1.0000000000E+00      0.0000000000E+00      1          
wel_39                 fixed                  factor                1.0000000000E+00      1.1000000000E-10      1.1000000000E+10       pargp                 1.0000000000E+00      0.0000000000E+00      1          
wel_06                 fixed                  factor                1.0000000000E+00      1.1000000000E-10      1.1000000000E+10       pargp                 1.0000000000E+00      0.0000000000E+00      1          
wel_08                 fixed                  factor                1.0000000000E+00      1.1000000000E-10      1.1000000000E+10       pargp                 1.0000000000E+00      0.0000000000E+00      1          
wel_26                 fixed                  factor                1.0000000000E+00      1.1000000000E-10      1.1000000000E+10       pargp                 1.0000000000E+00      0.0000000000E+00      1          
wel_22                 fixed                  factor                1.0000000000E+00      1.1000000000E-10      1.1000000000E+10       pargp                 1.0000000000E+00      0.0000000000E+00      1          
wel_07                 fixed                  factor                1.0000000000E+00      1.1000000000E-10      1.1000000000E+10       pargp                 1.0000000000E+00      0.0000000000E+00      1          
wel_40                 fixed                  factor                1.0000000000E+00      1.1000000000E-10      1.1000000000E+10       pargp                 1.0000000000E+00      0.0000000000E+00      1          
gr_001034              log                    factor                1.0000000000E+00      1.0000000000E-02      1.0000000000E+02       pargp                 1.0000000000E+00      0.0000000000E+00      1          
gr_058018              log                    factor                1.0000000000E+00      1.0000000000E-02      1.0000000000E+02       pargp                 1.0000000000E+00      0.0000000000E+00      1          
gr_018042              log                    factor                1.0000000000E+00      1.0000000000E-02      1.0000000000E+02       pargp                 1.0000000000E+00      0.0000000000E+00      1          
gr_036002              log                    factor                1.0000000000E+00      1.0000000000E-02      1.0000000000E+02       pargp                 1.0000000000E+00      0.0000000000E+00      1          
gr_071025              log                    factor                1.0000000000E+00      1.0000000000E-02      1.0000000000E+02       pargp                 1.0000000000E+00      0.0000000000E+00      1          
gr_011018              log                    factor                1.0000000000E+00      1.0000000000E-02      1.0000000000E+02       pargp                 1.0000000000E+00      0.0000000000E+00      1          
gr_024003              log                    factor                1.0000000000E+00      1.0000000000E-02      1.0000000000E+02       pargp                 1.0000000000E+00      0.0000000000E+00      1          
gr_025005              log                    factor                1.0000000000E+00      1.0000000000E-02      1.0000000000E+02       pargp                 1.0000000000E+00      0.0000000000E+00      1          
gr_031003              log                    factor                1.0000000000E+00      1.0000000000E-02      1.0000000000E+02       pargp                 1.0000000000E+00      0.0000000000E+00      1          
gr_062016              log                    factor                1.0000000000E+00      1.0000000000E-02      1.0000000000E+02       pargp                 1.0000000000E+00      0.0000000000E+00      1          
gr_073049              log                    factor                1.0000000000E+00      1.0000000000E-02      1.0000000000E+02       pargp                 1.0000000000E+00      0.0000000000E+00      1          
gr_013009              log                    factor                1.0000000000E+00      1.0000000000E-02      1.0000000000E+02       pargp                 1.0000000000E+00      0.0000000000E+00      1          
gr_057016              log                    factor                1.0000000000E+00      1.0000000000E-02      1.0000000000E+02       pargp                 1.0000000000E+00      0.0000000000E+00      1          
gr_055030              log                    factor                1.0000000000E+00      1.0000000000E-02      1.0000000000E+02       pargp                 1.0000000000E+00      0.0000000000E+00      1          
gr_040004              log                    factor                1.0000000000E+00      1.0000000000E-02      1.0000000000E+02       pargp                 1.0000000000E+00      0.0000000000E+00      1          
gr_079038              log                    factor                1.0000000000E+00      1.0000000000E-02      1.0000000000E+02       pargp                 1.0000000000E+00      0.0000000000E+00      1          
gr_079041              log                    factor                1.0000000000E+00      1.0000000000E-02      1.0000000000E+02       pargp                 1.0000000000E+00      0.0000000000E+00      1          
gr_037040              log                    factor                1.0000000000E+00      1.0000000000E-02      1.0000000000E+02       pargp                 1.0000000000E+00      0.0000000000E+00      1          
gr_047034              log                    factor                1.0000000000E+00      1.0000000000E-02      1.0000000000E+02       pargp                 1.0000000000E+00      0.0000000000E+00      1          
gr_039018              log                    factor                1.0000000000E+00      1.0000000000E-02      1.0000000000E+02       pargp                 1.0000000000E+00      0.0000000000E+00      1          
gr_050012              log                    factor                1.0000000000E+00      1.0000000000E-02      1.0000000000E+02       pargp                 1.0000000000E+00      0.0000000000E+00      1          
gr_077025              log                    factor                1.0000000000E+00      1.0000000000E-02      1.0000000000E+02       pargp                 1.0000000000E+00      0.0000000000E+00      1          
gr_042039              log                    factor                1.0000000000E+00      1.0000000000E-02      1.0000000000E+02       pargp                 1.0000000000E+00      0.0000000000E+00      1          
gr_026001              log                    factor                1.0000000000E+00      1.0000000000E-02      1.0000000000E+02       pargp                 1.0000000000E+00      0.0000000000E+00      1          
gr_072025              log                    factor                1.0000000000E+00      1.0000000000E-02      1.0000000000E+02       pargp                 1.0000000000E+00      0.0000000000E+00      1          
gr_035045              log                    factor                1.0000000000E+00      1.0000000000E-02      1.0000000000E+02       pargp                 1.0000000000E+00      0.0000000000E+00      1          
gr_047025              log                    factor                1.0000000000E+00      1.0000000000E-02      1.0000000000E+02       pargp                 1.0000000000E+00      0.0000000000E+00      1          
gr_055027              log                    factor                1.0000000000E+00      1.0000000000E-02      1.0000000000E+02       pargp                 1.0000000000E+00      0.0000000000E+00      1          
gr_078037              log                    factor                1.0000000000E+00      1.0000000000E-02      1.0000000000E+02       pargp                 1.0000000000E+00      0.0000000000E+00      1          
gr_007006              log                    factor                1.0000000000E+00      1.0000000000E-02      1.0000000000E+02       pargp                 1.0000000000E+00      0.0000000000E+00      1          
gr_034046              log                    factor                1.0000000000E+00      1.0000000000E-02      1.0000000000E+02       pargp                 1.0000000000E+00      0.0000000000E+00      1          
gr_038030              log                    factor                1.0000000000E+00      1.0000000000E-02      1.0000000000E+02       pargp                 1.0000000000E+00      0.0000000000E+00      1          
gr_015036              log                    factor                1.0000000000E+00      1.0000000000E-02      1.0000000000E+02       pargp                 1.0000000000E+00      0.0000000000E+00      1          
gr_052045              log                    factor                1.0000000000E+00      1.0000000000E-02      1.0000000000E+02       pargp                 1.0000000000E+00      0.0000000000E+00      1          
gr_062021              log                    factor                1.0000000000E+00      1.0000000000E-02      1.0000000000E+02       pargp                 1.0000000000E+00      0.0000000000E+00      1          
gr_018041              log                    factor                1.0000000000E+00      1.0000000000E-02      1.0000000000E+02       pargp                 1.0000000000E+00      0.0000000000E+00      1          
gr_069040              log                    factor                1.0000000000E+00      1.0000000000E-02      1.0000000000E+02       pargp                 1.0000000000E+00      0.0000000000E+00      1          
gr_078024              log                    factor                1.0000000000E+00      1.0000000000E-02      1.0000000000E+02       pargp                 1.0000000000E+00      0.0000000000E+00      1          
gr_059018              log                    factor                1.0000000000E+00      1.0000000000E-02      1.0000000000E+02       pargp                 1.0000000000E+00      0.0000000000E+00      1          
gr_007042              log                    factor                1.0000000000E+00      1.0000000000E-02      1.0000000000E+02       pargp                 1.0000000000E+00      0.0000000000E+00      1          
gr_039012              log                    factor                1.0000000000E+00      1.0000000000E-02      1.0000000000E+02       pargp                 1.0000000000E+00      0.0000000000E+00      1          
gr_068025              log                    factor                1.0000000000E+00      1.0000000000E-02      1.0000000000E+02       pargp                 1.0000000000E+00      0.0000000000E+00      1          
gr_074048              log                    factor                1.0000000000E+00      1.0000000000E-02      1.0000000000E+02       pargp                 1.0000000000E+00      0.0000000000E+00      1          
gr_061042              log                    factor                1.0000000000E+00      1.0000000000E-02      1.0000000000E+02       pargp                 1.0000000000E+00      0.0000000000E+00      1          
gr_018039              log                    factor                1.0000000000E+00      1.0000000000E-02      1.0000000000E+02       pargp                 1.0000000000E+00      0.0000000000E+00      1          
gr_033010              log                    factor                1.0000000000E+00      1.0000000000E-02      1.0000000000E+02       pargp                 1.0000000000E+00      0.0000000000E+00      1          
gr_054038              log                    factor                1.0000000000E+00      1.0000000000E-02      1.0000000000E+02       pargp                 1.0000000000E+00      0.0000000000E+00      1          
gr_070007              log                    factor                1.0000000000E+00      1.0000000000E-02      1.0000000000E+02       pargp                 1.0000000000E+00      0.0000000000E+00      1          
gr_059011              log                    factor                1.0000000000E+00      1.0000000000E-02      1.0000000000E+02       pargp                 1.0000000000E+00      0.0000000000E+00      1          
gr_042032              log                    factor                1.0000000000E+00      1.0000000000E-02      1.0000000000E+02       pargp                 1.0000000000E+00      0.0000000000E+00      1          
gr_070003              log                    factor                1.0000000000E+00      1.0000000000E-02      1.0000000000E+02       pargp                 1.0000000000E+00      0.0000000000E+00      1          
gr_034034              log                    factor                1.0000000000E+00      1.0000000000E-02      1.0000000000E+02       pargp                 1.0000000000E+00      0.0000000000E+00      1          
gr_009018              log                    factor                1.0000000000E+00      1.0000000000E-02      1.0000000000E+02       pargp                 1.0000000000E+00      0.0000000000E+00      1          
gr_056017              log                    factor                1.0000000000E+00      1.0000000000E-02      1.0000000000E+02       pargp                 1.0000000000E+00      0.0000000000E+00      1          
gr_060021              log                    factor                1.0000000000E+00      1.0000000000E-02      1.0000000000E+02       pargp                 1.0000000000E+00      0.0000000000E+00      1          
gr_065002              log                    factor                1.0000000000E+00      1.0000000000E-02      1.0000000000E+02       pargp                 1.0000000000E+00      0.0000000000E+00      1          
gr_007038              log                    factor                1.0000000000E+00      1.0000000000E-02      1.0000000000E+02       pargp                 1.0000000000E+00      0.0000000000E+00      1          
gr_013029              log                    factor                1.0000000000E+00      1.0000000000E-02      1.0000000000E+02       pargp                 1.0000000000E+00      0.0000000000E+00      1          
gr_043011              log                    factor                1.0000000000E+00      1.0000000000E-02      1.0000000000E+02       pargp                 1.0000000000E+00      0.0000000000E+00      1          
gr_074003              log                    factor                1.0000000000E+00      1.0000000000E-02      1.0000000000E+02       pargp                 1.0000000000E+00      0.0000000000E+00      1          
gr_055000              log                    factor                1.0000000000E+00      1.0000000000E-02      1.0000000000E+02       pargp                 1.0000000000E+00      0.0000000000E+00      1          
gr_003047              log                    factor                1.0000000000E+00      1.0000000000E-02      1.0000000000E+02       pargp                 1.0000000000E+00      0.0000000000E+00      1          
gr_007015              log                    factor                1.0000000000E+00      1.0000000000E-02      1.0000000000E+02       pargp                 1.0000000000E+00      0.0000000000E+00      1          
gr_041014              log                    factor                1.0000000000E+00      1.0000000000E-02      1.0000000000E+02       pargp                 1.0000000000E+00      0.0000000000E+00      1          
gr_058038              log                    factor                1.0000000000E+00      1.0000000000E-02      1.0000000000E+02       pargp                 1.0000000000E+00      0.0000000000E+00      1          
gr_048029              log                    factor                1.0000000000E+00      1.0000000000E-02      1.0000000000E+02       pargp                 1.0000000000E+00      0.0000000000E+00      1          
gr_009004              log                    factor                1.0000000000E+00      1.0000000000E-02      1.0000000000E+02       pargp                 1.0000000000E+00      0.0000000000E+00      1          
gr_028010              log                    factor                1.0000000000E+00      1.0000000000E-02      1.0000000000E+02       pargp                 1.0000000000E+00      0.0000000000E+00      1          
gr_057001              log                    factor                1.0000000000E+00      1.0000000000E-02      1.0000000000E+02       pargp                 1.0000000000E+00      0.0000000000E+00      1          
gr_045007              log                    factor                1.0000000000E+00      1.0000000000E-02      1.0000000000E+02       pargp                 1.0000000000E+00      0.0000000000E+00      1          
gr_076003              log                    factor                1.0000000000E+00      1.0000000000E-02      1.0000000000E+02       pargp                 1.0000000000E+00      0.0000000000E+00      1          
gr_012037              log                    factor                1.0000000000E+00      1.0000000000E-02      1.0000000000E+02       pargp                 1.0000000000E+00      0.0000000000E+00      1          
gr_044019              log                    factor                1.0000000000E+00      1.0000000000E-02      1.0000000000E+02       pargp                 1.0000000000E+00      0.0000000000E+00      1          
gr_009027              log                    factor                1.0000000000E+00      1.0000000000E-02      1.0000000000E+02       pargp                 1.0000000000E+00      0.0000000000E+00      1          
gr_014019              log                    factor                1.0000000000E+00      1.0000000000E-02      1.0000000000E+02       pargp                 1.0000000000E+00      0.0000000000E+00      1          
gr_017002              log                    factor                1.0000000000E+00      1.0000000000E-02      1.0000000000E+02       pargp                 1.0000000000E+00      0.0000000000E+00      1          
gr_060022              log                    factor                1.0000000000E+00      1.0000000000E-02      1.0000000000E+02       pargp                 1.0000000000E+00      0.0000000000E+00      1          
gr_057032              log                    factor                1.0000000000E+00      1.0000000000E-02      1.0000000000E+02       pargp                 1.0000000000E+00      0.0000000000E+00      1          
gr_010012              log                    factor                1.0000000000E+00      1.0000000000E-02      1.0000000000E+02       pargp                 1.0000000000E+00      0.0000000000E+00      1          
gr_052008              log                    factor                1.0000000000E+00      1.0000000000E-02      1.0000000000E+02       pargp                 1.0000000000E+00      0.0000000000E+00      1          
gr_049006              log                    factor                1.0000000000E+00      1.0000000000E-02      1.0000000000E+02       pargp                 1.0000000000E+00      0.0000000000E+00      1          
gr_070044              log                    factor                1.0000000000E+00      1.0000000000E-02      1.0000000000E+02       pargp                 1.0000000000E+00      0.0000000000E+00      1          
gr_016017              log                    factor                1.0000000000E+00      1.0000000000E-02      1.0000000000E+02       pargp                 1.0000000000E+00      0.0000000000E+00      1          
gr_077021              log                    factor                1.0000000000E+00      1.0000000000E-02      1.0000000000E+02       pargp                 1.0000000000E+00      0.0000000000E+00      1          
gr_076017              log                    factor                1.0000000000E+00      1.0000000000E-02      1.0000000000E+02       pargp                 1.0000000000E+00      0.0000000000E+00      1          