# Discretization file for MODFLOW-2000, generated by PMWIN
         1        80        50         1         4         0
 0
        95         1(20G14.0)                   -1     DELR(NCOL)
            10            10            10            10            10            10            10            10            10            10            10            10            10            10            10            10            10            10            10            10
            10            10            10            10            10            10            10            10            10            10            10            10            10            10            10            10            10            10            10            10
            10            10            10            10            10            10            10            10            10            10
        95         1(20G14.0)                   -1     DELC(NROW)
            10            10            10            10            10            10            10            10            10            10            10            10            10            10            10            10            10            10            10            10
            10            10            10            10            10            10            10            10            10            10            10            10            10            10            10            10            10            10            10            10
            10            10            10            10            10            10            10            10            10            10            10            10            10            10            10            10            10            10            10            10
            10            10            10            10            10            10            10            10            10            10            10            10            10            10            10            10            10            10            10            10
        constant  -100.0                               TOP    OF LAYER 1
        constant  -110.0                               BOTTOM OF LAYER 1
             1             1         1 SS
